-------------------------------------------------------
          Amber 16 PMEMD                              2016
          -------------------------------------------------------

  [-O]verwriting output

File Assignments:

 Here is the input file:

PBC MD Simulation
 &cntrl
  imin =          0,
  ntx =           1,
  irest =         0,
  maxcyc =        0,
  ncyc =          0,
  dt =            0.002,
  nstlim =        100000,
  ntpr =          250,
  ntwe =          500,
  ntwr =          5000,
  ntwx =          250,
  ntxo =          1,
  ioutfm =        1,
  ntf =           1,
  ntc =           1,
  cut =           999.0,
  igb =           1,
  tempi =         298.15,
  temp0 =         298.15,
  ntt =           3,
  gamma_ln =      1.0,
  ig =            -1,
  ntp =           0,
  barostat =      2,
  nmropt =        0,
  pencut =        -1,
  ntb =           0,
  ntwprt =        0,
 /

Note: ig = -1. Setting random seed to   171657 based on wallclock time in
      microseconds.

--------------------------------------------------------------------------------
   1.  RESOURCE   USE:
--------------------------------------------------------------------------------

 NATOM  =     125 NTYPES =       7 NBONH =      46 MBONA  =      93
 NTHETH =     118 MTHETA =     158 NPHIH =     200 MPHIA  =     375
 NHPARM =       0 NPARM  =       0 NNB   =     836 NRES   =       5
 NBONA  =      93 NTHETA =     158 NPHIA =     375 NUMBND =       6
 NUMANG =      12 NPTRA  =      13 NATYP =       7 NPHB   =       0
 IFBOX  =       0 NMXRS  =     108 IFCAP =       0 NEXTRA =       0
 NCOPY  =       0

 Implicit solvent radii are modified Bondi radii (mbondi)
--------------------------------------------------------------------------------
   2.  CONTROL  DATA  FOR  THE  RUN
--------------------------------------------------------------------------------

default_name

General flags:
     imin    =       0, nmropt  =       0

Nature and format of input:
     ntx     =       1, irest   =       0, ntrx    =       1

Nature and format of output:
     ntxo    =       1, ntpr    =     250, ntrx    =       1, ntwr    =    5000
     iwrap   =       0, ntwx    =     250, ntwv    =       0, ntwe    =     500
     ioutfm  =       1, ntwprt  =       0, idecomp =       0, rbornstat=      0

Potential function:
     ntf     =       1, ntb     =       0, igb     =       1, nsnb    =      25
     ipol    =       0, gbsa    =       0, iesp    =       0
     dielc   =   1.00000, cut     = 999.00000, intdiel =   1.00000
     saltcon =   0.00000, offset  =   0.09000, gbalpha=    1.00000
     gbbeta  =   0.00000, gbgamma =   0.00000, surften =   0.00500
     rdt     =   0.00000, rgbmax  =  25.00000  extdiel =  78.50000
     alpb  =        0

Frozen or restrained atoms:
     ibelly  =       0, ntr     =       0

Molecular dynamics:
     nstlim  =    100000, nscm    =      1000, nrespa  =         1
     t       =   0.00000, dt      =   0.00200, vlimit  =  20.00000

Langevin dynamics temperature regulation:
     ig      =  171657
     temp0   = 298.15000, tempi   = 298.15000, gamma_ln=   1.00000

--------------------------------------------------------------------------------
   3.  ATOMIC COORDINATES AND VELOCITIES
--------------------------------------------------------------------------------

 begin time read from input coords =     0.000 ps

 Number of triangulated 3-point waters found:        0

--------------------------------------------------------------------------------
   4.  RESULTS
 NSTEP =        0   TIME(PS) =       0.000  TEMP(K) =   287.42  PRESS =     0.0
 Etot   =      -706.2918  EKtot   =       107.0925  EPtot      =      -813.3843
 BOND   =        11.4116  ANGLE   =       109.4369  DIHED      =        52.9578
 1-4 NB =         5.8595  1-4 EEL =     -2127.9655  VDWAALS    =       -67.7555
 EELEC  =      1326.4920  EGB     =      -123.8211  RESTRAINT  =         0.0000
 ------------------------------------------------------------------------------

      A V E R A G E S   O V E R     400 S T E P S

 NSTEP =   100000   TIME(PS) =     200.000  TEMP(K) =   296.66  PRESS =     0.0
 Etot   =      -603.0125  EKtot   =       110.5341  EPtot      =      -713.5466
 BOND   =        45.5383  ANGLE   =       159.1127  DIHED      =        63.7226
 1-4 NB =         7.5586  1-4 EEL =     -2124.1983  VDWAALS    =       -64.1905
 EELEC  =      1325.4422  EGB     =      -126.5322  RESTRAINT  =         0.0000
 ------------------------------------------------------------------------------

      R M S  F L U C T U A T I O N S

 NSTEP =   100000   TIME(PS) =     200.000  TEMP(K) =    22.43  PRESS =     0.0
 Etot   =        11.4279  EKtot   =         8.3588  EPtot      =         8.3523
 BOND   =         5.2469  ANGLE   =         5.8137  DIHED      =         2.9029
 1-4 NB =         1.2773  1-4 EEL =         7.4868  VDWAALS    =         1.3363
 EELEC  =         7.9400  EGB     =         3.1178  RESTRAINT  =         0.0000
 ------------------------------------------------------------------------------
