-------------------------------------------------------
          Amber 16 PMEMD                              2016
          -------------------------------------------------------

  [-O]verwriting output

File Assignments:

 Here is the input file:

PBC MD Simulation
 &cntrl
  imin =          0,
  ntx =           1,
  irest =         0,
  maxcyc =        0,
  ncyc =          0,
  dt =            0.002,
  nstlim =        1000000,
  ntpr =          250,
  ntwe =          500,
  ntwr =          5000,
  ntwx =          250,
  ntxo =          1,
  ioutfm =        1,
  ntf =           1,
  ntc =           2,
  cut =           999.0,
  igb =           1,
  tempi =         298.15,
  temp0 =         298.15,
  ntt =           3,
  gamma_ln =      1.0,
  ig =            -1,
  ntp =           0,
  barostat =      2,
  ntr =           1,
  restraint_wt =  50.0,
  restraintmask = '@DUM',
  nmropt =        1,
  pencut =        -1,
  ntwprt =        0,
  ntb =           0,
 /
 &wt type = 'END', /
DISANG = rest.in
LISTOUT = POUT

Note: ig = -1. Setting random seed to    77709 based on wallclock time in
      microseconds.

--------------------------------------------------------------------------------
   1.  RESOURCE   USE:
--------------------------------------------------------------------------------

 NATOM  =     125 NTYPES =       7 NBONH =      46 MBONA  =      93
 NTHETH =     118 MTHETA =     158 NPHIH =     200 MPHIA  =     375
 NHPARM =       0 NPARM  =       0 NNB   =     836 NRES   =       5
 NBONA  =      93 NTHETA =     158 NPHIA =     375 NUMBND =       6
 NUMANG =      12 NPTRA  =      13 NATYP =       7 NPHB   =       0
 IFBOX  =       0 NMXRS  =     108 IFCAP =       0 NEXTRA =       0
 NCOPY  =       0

 Implicit solvent radii are modified Bondi radii (mbondi)
--------------------------------------------------------------------------------
   2.  CONTROL  DATA  FOR  THE  RUN
--------------------------------------------------------------------------------

default_name

General flags:
     imin    =       0, nmropt  =       1

Nature and format of input:
     ntx     =       1, irest   =       0, ntrx    =       1

Nature and format of output:
     ntxo    =       1, ntpr    =     250, ntrx    =       1, ntwr    =    5000
     iwrap   =       0, ntwx    =     250, ntwv    =       0, ntwe    =     500
     ioutfm  =       1, ntwprt  =       0, idecomp =       0, rbornstat=      0

Potential function:
     ntf     =       1, ntb     =       0, igb     =       1, nsnb    =      25
     ipol    =       0, gbsa    =       0, iesp    =       0
     dielc   =   1.00000, cut     = 999.00000, intdiel =   1.00000
     saltcon =   0.00000, offset  =   0.09000, gbalpha=    1.00000
     gbbeta  =   0.00000, gbgamma =   0.00000, surften =   0.00500
     rdt     =   0.00000, rgbmax  =  25.00000  extdiel =  78.50000
     alpb  =        0

Frozen or restrained atoms:
     ibelly  =       0, ntr     =       1
     restraint_wt =  50.00000

Molecular dynamics:
     nstlim  =   1000000, nscm    =         0, nrespa  =         1
     t       =   0.00000, dt      =   0.00200, vlimit  =  -1.00000

Langevin dynamics temperature regulation:
     ig      =   77709
     temp0   = 298.15000, tempi   = 298.15000, gamma_ln=   1.00000

SHAKE:
     ntc     =       2, jfastw  =       0
     tol     =   0.00001

NMR refinement options:
     iscale  =       0, noeskp  =       1, ipnlty  =       1, mxsub   =       1
     scalm   = 100.00000, pencut  =  -1.00000, tausw   =   0.10000

    LOADING THE CONSTRAINED ATOMS AS GROUPS

   5.  REFERENCE ATOM COORDINATES

     Mask @DUM; matches     3 atoms

--------------------------------------------------------------------------------
   3.  ATOMIC COORDINATES AND VELOCITIES
--------------------------------------------------------------------------------

default_name
 begin time read from input coords =  1000.000 ps

           Begin reading energy term weight changes/NMR restraints
 WEIGHT CHANGES:
                         ** No weight changes given **

 RESTRAINTS:
 Requested file redirections:
  DISANG    = rest.in
  LISTOUT   = POUT
 Restraints will be read from file: rest.in
Here are comments from the DISANG input file:

                       Number of restraints read =     9

                  Done reading weight changes/NMR restraints

 Number of triangulated 3-point waters found:        0

--------------------------------------------------------------------------------
   4.  RESULTS
 NSTEP =        0   TIME(PS) =       0.000  TEMP(K) =   360.59  PRESS =     0.0
 Etot   =      -586.6732  EKtot   =       117.8752  EPtot      =      -704.5484
 BOND   =        39.8712  ANGLE   =       162.3128  DIHED      =        59.7774
 1-4 NB =         7.8365  1-4 EEL =     -2132.0338  VDWAALS    =       -52.8983
 EELEC  =      1338.7505  EGB     =      -131.1435  RESTRAINT  =         2.9787
 EAMBER (non-restraint)  =      -707.5271
 ------------------------------------------------------------------------------

      A V E R A G E S   O V E R    4000 S T E P S

 NSTEP =  1000000   TIME(PS) =    2000.000  TEMP(K) =   297.76  PRESS =     0.0
 Etot   =      -616.0525  EKtot   =        97.3341  EPtot      =      -713.3866
 BOND   =        27.7367  ANGLE   =       159.4876  DIHED      =        64.4672
 1-4 NB =         7.4937  1-4 EEL =     -2125.2601  VDWAALS    =       -52.6993
 EELEC  =      1326.5574  EGB     =      -126.5241  RESTRAINT  =         5.3542
 EAMBER (non-restraint)  =      -718.7409
 ------------------------------------------------------------------------------

      R M S  F L U C T U A T I O N S

 NSTEP =  1000000   TIME(PS) =    2000.000  TEMP(K) =    23.48  PRESS =     0.0
 Etot   =        10.9341  EKtot   =         7.6764  EPtot      =         7.8708
 BOND   =         4.1573  ANGLE   =         5.5914  DIHED      =         3.0977
 1-4 NB =         1.2930  1-4 EEL =         7.8364  VDWAALS    =         1.3191
 EELEC  =         8.5620  EGB     =         3.1763  RESTRAINT  =         1.8435
 EAMBER (non-restraint)  =         6.0273
 ------------------------------------------------------------------------------
