-------------------------------------------------------
          Amber 16 PMEMD                              2016
          -------------------------------------------------------

  [-O]verwriting output

File Assignments:

 Here is the input file:

PBC MD Simulation
 &cntrl
  imin =          0,
  ntx =           1,
  irest =         0,
  maxcyc =        0,
  ncyc =          0,
  dt =            0.002,
  nstlim =        1000000,
  ntpr =          250,
  ntwe =          500,
  ntwr =          5000,
  ntwx =          250,
  ntxo =          1,
  ioutfm =        1,
  ntf =           1,
  ntc =           2,
  cut =           999.0,
  igb =           1,
  tempi =         298.15,
  temp0 =         298.15,
  ntt =           3,
  gamma_ln =      1.0,
  ig =            -1,
  ntp =           0,
  barostat =      2,
  ntr =           1,
  restraint_wt =  50.0,
  restraintmask = '@DUM',
  nmropt =        1,
  pencut =        -1,
  ntwprt =        0,
  ntb =           0,
 /
 &wt type = 'END', /
DISANG = rest.in
LISTOUT = POUT

Note: ig = -1. Setting random seed to   220655 based on wallclock time in
      microseconds.

--------------------------------------------------------------------------------
   1.  RESOURCE   USE:
--------------------------------------------------------------------------------

 NATOM  =     125 NTYPES =       7 NBONH =      46 MBONA  =      93
 NTHETH =     118 MTHETA =     158 NPHIH =     200 MPHIA  =     375
 NHPARM =       0 NPARM  =       0 NNB   =     836 NRES   =       5
 NBONA  =      93 NTHETA =     158 NPHIA =     375 NUMBND =       6
 NUMANG =      12 NPTRA  =      13 NATYP =       7 NPHB   =       0
 IFBOX  =       0 NMXRS  =     108 IFCAP =       0 NEXTRA =       0
 NCOPY  =       0

 Implicit solvent radii are modified Bondi radii (mbondi)
--------------------------------------------------------------------------------
   2.  CONTROL  DATA  FOR  THE  RUN
--------------------------------------------------------------------------------

default_name

General flags:
     imin    =       0, nmropt  =       1

Nature and format of input:
     ntx     =       1, irest   =       0, ntrx    =       1

Nature and format of output:
     ntxo    =       1, ntpr    =     250, ntrx    =       1, ntwr    =    5000
     iwrap   =       0, ntwx    =     250, ntwv    =       0, ntwe    =     500
     ioutfm  =       1, ntwprt  =       0, idecomp =       0, rbornstat=      0

Potential function:
     ntf     =       1, ntb     =       0, igb     =       1, nsnb    =      25
     ipol    =       0, gbsa    =       0, iesp    =       0
     dielc   =   1.00000, cut     = 999.00000, intdiel =   1.00000
     saltcon =   0.00000, offset  =   0.09000, gbalpha=    1.00000
     gbbeta  =   0.00000, gbgamma =   0.00000, surften =   0.00500
     rdt     =   0.00000, rgbmax  =  25.00000  extdiel =  78.50000
     alpb  =        0

Frozen or restrained atoms:
     ibelly  =       0, ntr     =       1
     restraint_wt =  50.00000

Molecular dynamics:
     nstlim  =   1000000, nscm    =         0, nrespa  =         1
     t       =   0.00000, dt      =   0.00200, vlimit  =  -1.00000

Langevin dynamics temperature regulation:
     ig      =  220655
     temp0   = 298.15000, tempi   = 298.15000, gamma_ln=   1.00000

SHAKE:
     ntc     =       2, jfastw  =       0
     tol     =   0.00001

NMR refinement options:
     iscale  =       0, noeskp  =       1, ipnlty  =       1, mxsub   =       1
     scalm   = 100.00000, pencut  =  -1.00000, tausw   =   0.10000

    LOADING THE CONSTRAINED ATOMS AS GROUPS

   5.  REFERENCE ATOM COORDINATES

  default_name
     Mask @DUM; matches     3 atoms

--------------------------------------------------------------------------------
   3.  ATOMIC COORDINATES AND VELOCITIES
--------------------------------------------------------------------------------

default_name
 begin time read from input coords =  1000.000 ps

           Begin reading energy term weight changes/NMR restraints
 WEIGHT CHANGES:
                         ** No weight changes given **

 RESTRAINTS:
 Requested file redirections:
  DISANG    = rest.in
  LISTOUT   = POUT
 Restraints will be read from file: rest.in
Here are comments from the DISANG input file:

                       Number of restraints read =     9

                  Done reading weight changes/NMR restraints

 Number of triangulated 3-point waters found:        0

--------------------------------------------------------------------------------
   4.  RESULTS
 NSTEP =        0   TIME(PS) =       0.000  TEMP(K) =   355.92  PRESS =     0.0
 Etot   =      -600.0648  EKtot   =       116.3474  EPtot      =      -716.4122
 BOND   =        27.8162  ANGLE   =       162.5314  DIHED      =        67.3129
 1-4 NB =        10.1994  1-4 EEL =     -2135.7137  VDWAALS    =       -61.6347
 EELEC  =      1333.9574  EGB     =      -123.5975  RESTRAINT  =         2.7164
 EAMBER (non-restraint)  =      -719.1286
 ------------------------------------------------------------------------------

      A V E R A G E S   O V E R    4000 S T E P S

 NSTEP =  1000000   TIME(PS) =    2000.000  TEMP(K) =   298.10  PRESS =     0.0
 Etot   =      -629.5608  EKtot   =        97.4460  EPtot      =      -727.0068
 BOND   =        27.6422  ANGLE   =       158.8004  DIHED      =        63.8583
 1-4 NB =         7.7534  1-4 EEL =     -2125.3088  VDWAALS    =       -64.7374
 EELEC  =      1325.8621  EGB     =      -125.6420  RESTRAINT  =         4.7651
 EAMBER (non-restraint)  =      -731.7719
 ------------------------------------------------------------------------------

      R M S  F L U C T U A T I O N S

 NSTEP =  1000000   TIME(PS) =    2000.000  TEMP(K) =    22.98  PRESS =     0.0
 Etot   =        10.7689  EKtot   =         7.5107  EPtot      =         7.9066
 BOND   =         4.0540  ANGLE   =         5.5163  DIHED      =         3.0015
 1-4 NB =         1.3050  1-4 EEL =         7.7275  VDWAALS    =         1.2616
 EELEC  =         8.1340  EGB     =         2.9529  RESTRAINT  =         1.6695
 EAMBER (non-restraint)  =         6.2370
 ------------------------------------------------------------------------------
