-------------------------------------------------------
          Amber 18 SANDER                              2018
          -------------------------------------------------------

  [-O]verwriting output

File Assignments:

 Here is the input file:

PBC MD Simulation
 &cntrl
  imin =          0,
  ntx =           1,
  irest =         0,
  maxcyc =        0,
  ncyc =          0,
  dt =            0.002,
  nstlim =        10000,
  ntpr =          500,
  ntwe =          500,
  ntwr =          5000,
  ntwx =          500,
  ntxo =          1,
  ioutfm =        1,
  ntf =           2,
  ntc =           2,
  cut =           9.0,
  igb =           0,
  tempi =         298.15,
  temp0 =         298.15,
  ntt =           3,
  gamma_ln =      1.0,
  ig =            -1,
  ntp =           1,
  barostat =      2,
  nmropt =        1,
  pencut =        -1,
  iwrap =         1,
  ntb =           2,
  ntwprt =        0,
 /
 &wt type = 'END', /
DISANG = no_rest.in
LISTOUT = POUT

--------------------------------------------------------------------------------
   1.  RESOURCE   USE:
--------------------------------------------------------------------------------

 getting new box info from bottom of inpcrd

 NATOM  =    4608 NTYPES =       5 NBONH =    3072 MBONA  =    1024
 NTHETH =    6144 MTHETA =     512 NPHIH =    8192 MPHIA  =       0
 NHPARM =       0 NPARM  =       0 NNB   =   17408 NRES   =     512
 NBONA  =    1024 NTHETA =     512 NPHIA =       0 NUMBND =       5
 NUMANG =       7 NPTRA  =       5 NATYP =       5 NPHB   =       0
 IFBOX  =       1 NMXRS  =       9 IFCAP =       0 NEXTRA =       0
 NCOPY  =       0

     BOX TYPE: RECTILINEAR
Note: ig = -1. Setting random seed to   824870 based on wallclock time in microseconds.

--------------------------------------------------------------------------------
   2.  CONTROL  DATA  FOR  THE  RUN
--------------------------------------------------------------------------------

default_name

General flags:
     imin    =       0, nmropt  =       1

Nature and format of input:
     ntx     =       1, irest   =       0, ntrx    =       1

Nature and format of output:
     ntxo    =       1, ntpr    =     500, ntrx    =       1, ntwr    =    5000
     iwrap   =       1, ntwx    =     500, ntwv    =       0, ntwe    =     500
     ioutfm  =       1, ntwprt  =       0, idecomp =       0, rbornstat=      0

Potential function:
     ntf     =       2, ntb     =       2, igb     =       0, nsnb    =      25
     ipol    =       0, gbsa    =       0, iesp    =       0
     dielc   =   1.00000, cut     =   9.00000, intdiel =   1.00000

Frozen or restrained atoms:
     ibelly  =       0, ntr     =       0

Molecular dynamics:
     nstlim  =     10000, nscm    =      1000, nrespa  =         1
     t       =   0.00000, dt      =   0.00200, vlimit  =  20.00000

Langevin dynamics temperature regulation:
     ig      =  824870
     temp0   = 298.15000, tempi   = 298.15000, gamma_ln=   1.00000

Pressure regulation:
     ntp     =       1
     pres0   =   1.00000, comp    =  44.60000, taup    =   1.00000
     Monte-Carlo Barostat:
     mcbarint  =     100

SHAKE:
     ntc     =       2, jfastw  =       0
     tol     =   0.00001

NMR refinement options:
     iscale  =       0, noeskp  =       1, ipnlty  =       1, mxsub   =       1
     scalm   = 100.00000, pencut  =  -1.00000, tausw   =   0.10000

Ewald parameters:
     verbose =       0, ew_type =       0, nbflag  =       1, use_pme =       1
     vdwmeth =       1, eedmeth =       1, netfrc  =       1
     Box X =   37.486   Box Y =   36.090   Box Z =   37.140
     Alpha =   90.000   Beta  =   90.000   Gamma =   90.000
     NFFT1 =   40       NFFT2 =   36       NFFT3 =   40
     Cutoff=    9.000   Tol   =0.100E-04
     Ewald Coefficient =  0.30768
     Interpolation order =    4

--------------------------------------------------------------------------------
   3.  ATOMIC COORDINATES AND VELOCITIES
--------------------------------------------------------------------------------

TITLE : Created by VMD with 4608 atoms
 begin time read from input coords =     0.000 ps

           Begin reading energy term weight changes/NMR restraints
 WEIGHT CHANGES:
                         ** No weight changes given **

 RESTRAINTS:
 Requested file redirections:
  DISANG    = no_rest.in
  LISTOUT   = POUT
 Restraints will be read from file: no_rest.in
Here are comments from the DISANG input file:
                          ** No restraint defined **

                  Done reading weight changes/NMR restraints

 Number of triangulated 3-point waters found:        0

     Sum of charges from parm topology file =   0.00051312
     Forcing neutrality...

--------------------------------------------------------------------------------
   4.  RESULTS
 NSTEP =        0   TIME(PS) =       0.000  TEMP(K) =   378.39  PRESS =   172.8
 Etot   =       453.0509  EKtot   =      4042.3506  EPtot      =     -3589.2997
 BOND   =       314.5272  ANGLE   =      1743.4368  DIHED      =       789.1969
 1-4 NB =       118.8511  1-4 EEL =     -4668.8769  VDWAALS    =     -1807.3660
 EELEC  =       -79.0687  EHBOND  =         0.0000  RESTRAINT  =         0.0000
 EKCMT  =       457.4688  VIRIAL  =       270.0463  VOLUME     =     50244.2024
                                                    Density    =         0.7795
 Ewald error estimate:   0.2681E-02
 ------------------------------------------------------------------------------

      A V E R A G E S   O V E R   10000 S T E P S

 NSTEP =    10000   TIME(PS) =      20.000  TEMP(K) =   297.62  PRESS =   -54.8
 Etot   =      -392.4762  EKtot   =      3179.5597  EPtot      =     -3572.0359
 BOND   =       311.9524  ANGLE   =      1747.9657  DIHED      =       796.2201
 1-4 NB =       119.0664  1-4 EEL =     -4685.6098  VDWAALS    =     -1821.4680
 EELEC  =       -40.1627  EHBOND  =         0.0000  RESTRAINT  =         0.0000
 EKCMT  =       454.0715  VIRIAL  =       514.1007  VOLUME     =     50382.4808
                                                    Density    =         0.7775
 Ewald error estimate:   0.4159E-01
 ------------------------------------------------------------------------------

      R M S  F L U C T U A T I O N S

 NSTEP =    10000   TIME(PS) =      20.000  TEMP(K) =     3.75  PRESS =   225.7
 Etot   =        65.6584  EKtot   =        40.0971  EPtot      =        59.7598
 BOND   =        13.7400  ANGLE   =        31.1194  DIHED      =        11.3269
 1-4 NB =         4.1533  1-4 EEL =        10.8108  VDWAALS    =        30.1779
 EELEC  =        50.9620  EHBOND  =         0.0000  RESTRAINT  =         0.0000
 EKCMT  =        18.2851  VIRIAL  =       243.1510  VOLUME     =       501.3991
                                                    Density    =         0.0077
 Ewald error estimate:   0.5193E+00
 ------------------------------------------------------------------------------
